


 33 35  0  0  0  0  0  0  0  0999 V2000
   -1.5089   -0.7360   -2.3769 C   0  0  0  0  0  0  0  0  0  0  0  0
   -0.2119   -1.2696   -2.5572 O   0  0  0  0  0  0  0  0  0  0  0  0
    0.2486   -0.8743   -3.8290 C   0  0  0  0  0  0  0  0  0  0  0  0
   -0.5238    0.3828   -4.2337 C   0  0  0  0  0  0  0  0  0  0  0  0
   -0.6448    0.5434   -5.6284 O   0  0  0  0  0  0  0  0  0  0  0  0
   -1.8532    0.2097   -3.5334 C   0  0  0  0  0  0  0  0  0  0  0  0
   -2.8052   -0.3984   -4.3710 O   0  0  0  0  0  0  0  0  0  0  0  0
   -0.9448   -0.3169   -6.0228 H   0  0  0  0  0  0  0  0  0  0  0  0
   -3.2298    0.3286   -4.8973 H   0  0  0  0  0  0  0  0  0  0  0  0
   -1.9957    3.0981    2.3325 N   0  0  0  0  0  0  0  0  0  0  0  0
   -1.8083    2.8170    0.9457 C   0  0  0  0  0  0  0  0  0  0  0  0
   -1.6798    3.8325    0.0403 N   0  0  0  0  0  0  0  0  0  0  0  0
   -1.5087    3.5806   -1.2970 C   0  0  0  0  0  0  0  0  0  0  0  0
   -1.4614    2.2946   -1.7588 N   0  0  0  0  0  0  0  0  0  0  0  0
   -1.5837    1.2894   -0.8594 C   0  0  0  0  0  0  0  0  0  0  0  0
   -1.7564    1.5134    0.4628 C   0  0  0  0  0  0  0  0  0  0  0  0
   -1.8828    0.3483    1.1263 N   0  0  0  0  0  0  0  0  0  0  0  0
   -1.7741   -0.5765    0.1330 C   0  0  0  0  0  0  0  0  0  0  0  0
   -1.5789   -0.0299   -1.0951 N   0  0  0  0  0  0  0  0  0  0  0  0
   -2.0946    2.3270    3.0300 H   0  0  0  0  0  0  0  0  0  0  0  0
   -2.0321    4.0874    2.6663 H   0  0  0  0  0  0  0  0  0  0  0  0
    1.7622   -0.6413   -3.7653 C   0  0  0  0  0  0  0  0  0  0  0  0
    2.2609    0.0493   -2.1450 S   0  0  0  0  0  0  0  0  0  0  0  0
    3.0040    1.5790   -2.8148 C   0  0  0  0  0  0  0  0  0  0  0  0
    2.1615    2.7981   -2.4163 C   0  0  0  0  0  0  0  0  0  0  0  0
    1.6560    3.5987   -3.6416 C   0  0  0  0  0  0  0  0  0  0  0  0
    1.6721    2.7912   -4.8646 N   0  0  0  0  0  0  0  0  0  0  0  0
    0.8940    2.0943   -4.8296 H   0  0  0  0  0  0  0  0  0  0  0  0
    2.5749    2.2673   -4.9326 H   0  0  0  0  0  0  0  0  0  0  0  0
    2.4660    4.8453   -3.8799 C   0  0  0  0  0  0  0  0  0  0  0  0
    2.7738    5.6178   -2.9311 O   0  0  0  0  0  0  0  0  0  0  0  0
    2.8851    5.1459   -5.1721 O   0  0  0  0  0  0  0  0  0  0  0  0
    3.4331    5.9771   -5.3617 H   0  0  0  0  0  0  0  0  0  0  0  0
 10 11  1  0  0  0
 10 20  1  0  0  0
 10 21  1  0  0  0
 11 12  2  0  0  0
 11 16  1  0  0  0
 12 13  1  0  0  0
 13 14  2  0  0  0
 14 15  1  0  0  0
 15 16  2  0  0  0
 15 19  1  0  0  0
 16 17  1  0  0  0
 17 18  2  0  0  0
 18 19  1  0  0  0
 19  1  1  0  0  0
  1  2  1  0  0  0
  1  6  1  0  0  0
  2  3  1  0  0  0
  3 22  1  0  0  0
  3  4  1  0  0  0
 22 23  1  0  0  0
 23 24  1  0  0  0
 24 25  1  0  0  0
 25 26  1  0  0  0
 26 27  1  0  0  0
 26 30  1  0  0  0
 27 28  1  0  0  0
 27 29  1  0  0  0
 30 31  2  0  0  0
 30 32  1  0  0  0
 32 33  1  0  0  0
  4  5  1  0  0  0
  4  6  1  0  0  0
  5  8  1  0  0  0
  6  7  1  0  0  0
  7  9  1  0  0  0
M  END
> <minimizedAffinity>
-10.10790

> <CNNscore>
0.4010811746

> <CNNaffinity>
5.7934799194

> <CNN_VS>
2.3236558437

> <CNNaffinity_variance>
0.8767898679

$$$$



 33 35  0  0  0  0  0  0  0  0999 V2000
   -1.5815   -0.0530   -2.7412 C   0  0  0  0  0  0  0  0  0  0  0  0
   -0.5131   -0.8481   -2.2660 O   0  0  0  0  0  0  0  0  0  0  0  0
    0.2049   -1.3240   -3.3813 C   0  0  0  0  0  0  0  0  0  0  0  0
   -0.0655   -0.3734   -4.5492 C   0  0  0  0  0  0  0  0  0  0  0  0
    0.0466   -0.9885   -5.8120 O   0  0  0  0  0  0  0  0  0  0  0  0
   -1.4563    0.1437   -4.2564 C   0  0  0  0  0  0  0  0  0  0  0  0
   -2.4409   -0.6165   -4.9124 O   0  0  0  0  0  0  0  0  0  0  0  0
   -0.4623   -1.8409   -5.7969 H   0  0  0  0  0  0  0  0  0  0  0  0
   -2.5401   -0.2326   -5.8227 H   0  0  0  0  0  0  0  0  0  0  0  0
   -1.4845    4.7147    1.0503 N   0  0  0  0  0  0  0  0  0  0  0  0
   -1.6500    3.3246    0.7717 C   0  0  0  0  0  0  0  0  0  0  0  0
   -1.8958    2.4364    1.7807 N   0  0  0  0  0  0  0  0  0  0  0  0
   -2.0480    1.0961    1.5321 C   0  0  0  0  0  0  0  0  0  0  0  0
   -1.9572    0.6140    0.2559 N   0  0  0  0  0  0  0  0  0  0  0  0
   -1.7186    1.4964   -0.7434 C   0  0  0  0  0  0  0  0  0  0  0  0
   -1.5619    2.8211   -0.5222 C   0  0  0  0  0  0  0  0  0  0  0  0
   -1.3034    3.4650   -1.6764 N   0  0  0  0  0  0  0  0  0  0  0  0
   -1.3171    2.4576   -2.5921 C   0  0  0  0  0  0  0  0  0  0  0  0
   -1.5802    1.2396   -2.0515 N   0  0  0  0  0  0  0  0  0  0  0  0
   -1.2963    5.3991    0.2841 H   0  0  0  0  0  0  0  0  0  0  0  0
   -1.5545    5.0641    2.0323 H   0  0  0  0  0  0  0  0  0  0  0  0
    1.6927   -1.4085   -3.0223 C   0  0  0  0  0  0  0  0  0  0  0  0
    2.1552   -0.1277   -1.7989 S   0  0  0  0  0  0  0  0  0  0  0  0
    2.7886    1.0764   -3.0196 C   0  0  0  0  0  0  0  0  0  0  0  0
    2.5682    2.5092   -2.5167 C   0  0  0  0  0  0  0  0  0  0  0  0
    1.8467    3.4010   -3.5569 C   0  0  0  0  0  0  0  0  0  0  0  0
    1.6011    2.6847   -4.8118 N   0  0  0  0  0  0  0  0  0  0  0  0
    0.8304    1.9932   -4.6707 H   0  0  0  0  0  0  0  0  0  0  0  0
    2.4606    2.1603   -5.0956 H   0  0  0  0  0  0  0  0  0  0  0  0
    2.6205    4.6554   -3.8647 C   0  0  0  0  0  0  0  0  0  0  0  0
    3.1033    4.8624   -5.0117 O   0  0  0  0  0  0  0  0  0  0  0  0
    2.8011    5.6045   -2.8634 O   0  0  0  0  0  0  0  0  0  0  0  0
    3.3158    6.4589   -3.0426 H   0  0  0  0  0  0  0  0  0  0  0  0
 10 11  1  0  0  0
 10 20  1  0  0  0
 10 21  1  0  0  0
 11 12  2  0  0  0
 11 16  1  0  0  0
 12 13  1  0  0  0
 13 14  2  0  0  0
 14 15  1  0  0  0
 15 16  2  0  0  0
 15 19  1  0  0  0
 16 17  1  0  0  0
 17 18  2  0  0  0
 18 19  1  0  0  0
 19  1  1  0  0  0
  1  2  1  0  0  0
  1  6  1  0  0  0
  2  3  1  0  0  0
  3 22  1  0  0  0
  3  4  1  0  0  0
 22 23  1  0  0  0
 23 24  1  0  0  0
 24 25  1  0  0  0
 25 26  1  0  0  0
 26 27  1  0  0  0
 26 30  1  0  0  0
 27 28  1  0  0  0
 27 29  1  0  0  0
 30 31  2  0  0  0
 30 32  1  0  0  0
 32 33  1  0  0  0
  4  5  1  0  0  0
  4  6  1  0  0  0
  5  8  1  0  0  0
  6  7  1  0  0  0
  7  9  1  0  0  0
M  END
> <minimizedAffinity>
-9.12348

> <CNNscore>
0.3922715783

> <CNNaffinity>
6.0887937546

> <CNN_VS>
2.3884606361

> <CNNaffinity_variance>
0.3907769024

$$$$



 33 35  0  0  0  0  0  0  0  0999 V2000
   -1.9377   -0.6906   -2.4771 C   0  0  0  0  0  0  0  0  0  0  0  0
   -0.7922   -1.5027   -2.6444 O   0  0  0  0  0  0  0  0  0  0  0  0
   -0.2372   -1.2176   -3.9080 C   0  0  0  0  0  0  0  0  0  0  0  0
   -0.7004    0.1828   -4.3146 C   0  0  0  0  0  0  0  0  0  0  0  0
   -0.7631    0.3709   -5.7097 O   0  0  0  0  0  0  0  0  0  0  0  0
   -2.0439    0.3120   -3.6319 C   0  0  0  0  0  0  0  0  0  0  0  0
   -3.0972   -0.0629   -4.4851 O   0  0  0  0  0  0  0  0  0  0  0  0
   -1.2441   -0.3983   -6.1131 H   0  0  0  0  0  0  0  0  0  0  0  0
   -3.3396    0.7428   -5.0122 H   0  0  0  0  0  0  0  0  0  0  0  0
   -1.9110    3.1163    2.2792 N   0  0  0  0  0  0  0  0  0  0  0  0
   -1.8863    2.8438    0.8783 C   0  0  0  0  0  0  0  0  0  0  0  0
   -1.8800    3.8648   -0.0300 N   0  0  0  0  0  0  0  0  0  0  0  0
   -1.8660    3.6209   -1.3797 C   0  0  0  0  0  0  0  0  0  0  0  0
   -1.8570    2.3377   -1.8513 N   0  0  0  0  0  0  0  0  0  0  0  0
   -1.8581    1.3271   -0.9496 C   0  0  0  0  0  0  0  0  0  0  0  0
   -1.8750    1.5430    0.3850 C   0  0  0  0  0  0  0  0  0  0  0  0
   -1.9061    0.3735    1.0520 N   0  0  0  0  0  0  0  0  0  0  0  0
   -1.9042   -0.5455    0.0474 C   0  0  0  0  0  0  0  0  0  0  0  0
   -1.8639    0.0090   -1.1919 N   0  0  0  0  0  0  0  0  0  0  0  0
   -1.9160    2.3410    2.9789 H   0  0  0  0  0  0  0  0  0  0  0  0
   -1.9205    4.1036    2.6207 H   0  0  0  0  0  0  0  0  0  0  0  0
    1.2889   -1.3323   -3.8239 C   0  0  0  0  0  0  0  0  0  0  0  0
    1.7976   -2.4580   -2.4729 S   0  0  0  0  0  0  0  0  0  0  0  0
    2.6849   -1.1912   -1.4987 C   0  0  0  0  0  0  0  0  0  0  0  0
    1.6994   -0.1408   -0.9695 C   0  0  0  0  0  0  0  0  0  0  0  0
    2.2998    1.2865   -0.9579 C   0  0  0  0  0  0  0  0  0  0  0  0
    1.5975    2.1655   -0.0185 N   0  0  0  0  0  0  0  0  0  0  0  0
    1.8556    1.9036    0.9597 H   0  0  0  0  0  0  0  0  0  0  0  0
    0.5638    2.0459   -0.1251 H   0  0  0  0  0  0  0  0  0  0  0  0
    2.2752    1.9249   -2.3212 C   0  0  0  0  0  0  0  0  0  0  0  0
    3.2675    1.8519   -3.0968 O   0  0  0  0  0  0  0  0  0  0  0  0
    1.1326    2.6043   -2.7322 O   0  0  0  0  0  0  0  0  0  0  0  0
    1.0871    3.0419   -3.6451 H   0  0  0  0  0  0  0  0  0  0  0  0
 10 11  1  0  0  0
 10 20  1  0  0  0
 10 21  1  0  0  0
 11 12  2  0  0  0
 11 16  1  0  0  0
 12 13  1  0  0  0
 13 14  2  0  0  0
 14 15  1  0  0  0
 15 16  2  0  0  0
 15 19  1  0  0  0
 16 17  1  0  0  0
 17 18  2  0  0  0
 18 19  1  0  0  0
 19  1  1  0  0  0
  1  2  1  0  0  0
  1  6  1  0  0  0
  2  3  1  0  0  0
  3 22  1  0  0  0
  3  4  1  0  0  0
 22 23  1  0  0  0
 23 24  1  0  0  0
 24 25  1  0  0  0
 25 26  1  0  0  0
 26 27  1  0  0  0
 26 30  1  0  0  0
 27 28  1  0  0  0
 27 29  1  0  0  0
 30 31  2  0  0  0
 30 32  1  0  0  0
 32 33  1  0  0  0
  4  5  1  0  0  0
  4  6  1  0  0  0
  5  8  1  0  0  0
  6  7  1  0  0  0
  7  9  1  0  0  0
M  END
> <minimizedAffinity>
-9.01149

> <CNNscore>
0.3889122009

> <CNNaffinity>
5.7267823219

> <CNN_VS>
2.2272155285

> <CNNaffinity_variance>
0.6256313324

$$$$



 33 35  0  0  0  0  0  0  0  0999 V2000
    0.6875    2.5453   -1.4864 C   0  0  0  0  0  0  0  0  0  0  0  0
   -0.3718    2.6936   -0.5617 O   0  0  0  0  0  0  0  0  0  0  0  0
   -1.4699    3.2548   -1.2438 C   0  0  0  0  0  0  0  0  0  0  0  0
   -1.3028    2.9415   -2.7320 C   0  0  0  0  0  0  0  0  0  0  0  0
   -1.9170    3.8867   -3.5776 O   0  0  0  0  0  0  0  0  0  0  0  0
    0.1985    2.8721   -2.9021 C   0  0  0  0  0  0  0  0  0  0  0  0
    0.7316    4.1077   -3.3105 O   0  0  0  0  0  0  0  0  0  0  0  0
   -1.6600    4.7972   -3.2766 H   0  0  0  0  0  0  0  0  0  0  0  0
    0.6672    4.1343   -4.3010 H   0  0  0  0  0  0  0  0  0  0  0  0
    2.4956   -3.2192   -2.2720 N   0  0  0  0  0  0  0  0  0  0  0  0
    1.7196   -2.0774   -2.6347 C   0  0  0  0  0  0  0  0  0  0  0  0
    0.9152   -2.1041   -3.7391 N   0  0  0  0  0  0  0  0  0  0  0  0
    0.1702   -1.0130   -4.1075 C   0  0  0  0  0  0  0  0  0  0  0  0
    0.2153    0.1373   -3.3697 N   0  0  0  0  0  0  0  0  0  0  0  0
    1.0090    0.1601   -2.2726 C   0  0  0  0  0  0  0  0  0  0  0  0
    1.7546   -0.9017   -1.8919 C   0  0  0  0  0  0  0  0  0  0  0  0
    2.4737   -0.6037   -0.7929 N   0  0  0  0  0  0  0  0  0  0  0  0
    2.1156    0.6853   -0.5399 C   0  0  0  0  0  0  0  0  0  0  0  0
    1.2099    1.1779   -1.4241 N   0  0  0  0  0  0  0  0  0  0  0  0
    3.1124   -3.2058   -1.4293 H   0  0  0  0  0  0  0  0  0  0  0  0
    2.4502   -4.0884   -2.8498 H   0  0  0  0  0  0  0  0  0  0  0  0
   -2.7679    2.6827   -0.6631 C   0  0  0  0  0  0  0  0  0  0  0  0
   -2.5638    0.9289   -0.1798 S   0  0  0  0  0  0  0  0  0  0  0  0
   -3.9134    0.2871   -1.2323 C   0  0  0  0  0  0  0  0  0  0  0  0
   -3.3445   -0.6182   -2.3330 C   0  0  0  0  0  0  0  0  0  0  0  0
   -3.6363   -0.0812   -3.7557 C   0  0  0  0  0  0  0  0  0  0  0  0
   -4.0151    1.3346   -3.7366 N   0  0  0  0  0  0  0  0  0  0  0  0
   -3.1688    1.9169   -3.5446 H   0  0  0  0  0  0  0  0  0  0  0  0
   -4.7084    1.5066   -2.9724 H   0  0  0  0  0  0  0  0  0  0  0  0
   -4.7255   -0.8593   -4.4449 C   0  0  0  0  0  0  0  0  0  0  0  0
   -4.6575   -2.1130   -4.5679 O   0  0  0  0  0  0  0  0  0  0  0  0
   -5.8290   -0.1798   -4.9512 O   0  0  0  0  0  0  0  0  0  0  0  0
   -6.5781   -0.6779   -5.4181 H   0  0  0  0  0  0  0  0  0  0  0  0
 10 11  1  0  0  0
 10 20  1  0  0  0
 10 21  1  0  0  0
 11 12  2  0  0  0
 11 16  1  0  0  0
 12 13  1  0  0  0
 13 14  2  0  0  0
 14 15  1  0  0  0
 15 16  2  0  0  0
 15 19  1  0  0  0
 16 17  1  0  0  0
 17 18  2  0  0  0
 18 19  1  0  0  0
 19  1  1  0  0  0
  1  2  1  0  0  0
  1  6  1  0  0  0
  2  3  1  0  0  0
  3 22  1  0  0  0
  3  4  1  0  0  0
 22 23  1  0  0  0
 23 24  1  0  0  0
 24 25  1  0  0  0
 25 26  1  0  0  0
 26 27  1  0  0  0
 26 30  1  0  0  0
 27 28  1  0  0  0
 27 29  1  0  0  0
 30 31  2  0  0  0
 30 32  1  0  0  0
 32 33  1  0  0  0
  4  5  1  0  0  0
  4  6  1  0  0  0
  5  8  1  0  0  0
  6  7  1  0  0  0
  7  9  1  0  0  0
M  END
> <minimizedAffinity>
-10.17524

> <CNNscore>
0.2921669483

> <CNNaffinity>
5.9242572784

> <CNN_VS>
1.7308721542

> <CNNaffinity_variance>
0.6149578094

$$$$



 33 35  0  0  0  0  0  0  0  0999 V2000
    0.5467    2.6639   -2.4222 C   0  0  0  0  0  0  0  0  0  0  0  0
   -0.0857    2.6932   -1.1579 O   0  0  0  0  0  0  0  0  0  0  0  0
   -1.1129    3.6567   -1.2070 C   0  0  0  0  0  0  0  0  0  0  0  0
   -1.5070    3.8425   -2.6737 C   0  0  0  0  0  0  0  0  0  0  0  0
   -2.0296    5.1199   -2.9576 O   0  0  0  0  0  0  0  0  0  0  0  0
   -0.2233    3.5422   -3.4151 C   0  0  0  0  0  0  0  0  0  0  0  0
    0.5111    4.7130   -3.6754 O   0  0  0  0  0  0  0  0  0  0  0  0
   -1.4293    5.8044   -2.5617 H   0  0  0  0  0  0  0  0  0  0  0  0
    0.1617    5.0872   -4.5261 H   0  0  0  0  0  0  0  0  0  0  0  0
    1.3265   -3.2903   -3.4499 N   0  0  0  0  0  0  0  0  0  0  0  0
    1.6049   -2.0829   -2.7413 C   0  0  0  0  0  0  0  0  0  0  0  0
    2.4599   -2.0821   -1.6753 N   0  0  0  0  0  0  0  0  0  0  0  0
    2.7314   -0.9331   -0.9773 C   0  0  0  0  0  0  0  0  0  0  0  0
    2.1474    0.2497   -1.3368 N   0  0  0  0  0  0  0  0  0  0  0  0
    1.3043    0.2481   -2.3967 C   0  0  0  0  0  0  0  0  0  0  0  0
    1.0191   -0.8724   -3.0977 C   0  0  0  0  0  0  0  0  0  0  0  0
    0.1320   -0.6048   -4.0749 N   0  0  0  0  0  0  0  0  0  0  0  0
   -0.0924    0.7291   -3.9201 C   0  0  0  0  0  0  0  0  0  0  0  0
    0.6211    1.2828   -2.9055 N   0  0  0  0  0  0  0  0  0  0  0  0
    0.6740   -3.2981   -4.2654 H   0  0  0  0  0  0  0  0  0  0  0  0
    1.7801   -4.1851   -3.1586 H   0  0  0  0  0  0  0  0  0  0  0  0
   -2.2841    3.1874   -0.3368 C   0  0  0  0  0  0  0  0  0  0  0  0
   -1.7196    2.0468    0.9790 S   0  0  0  0  0  0  0  0  0  0  0  0
   -2.7154    0.6171    0.4264 C   0  0  0  0  0  0  0  0  0  0  0  0
   -2.1257    0.0237   -0.8599 C   0  0  0  0  0  0  0  0  0  0  0  0
   -3.2041   -0.6114   -1.7717 C   0  0  0  0  0  0  0  0  0  0  0  0
   -2.6072   -1.3778   -2.8693 N   0  0  0  0  0  0  0  0  0  0  0  0
   -2.2085   -2.2677   -2.4934 H   0  0  0  0  0  0  0  0  0  0  0  0
   -1.8284   -0.8301   -3.3026 H   0  0  0  0  0  0  0  0  0  0  0  0
   -4.1329    0.4191   -2.3566 C   0  0  0  0  0  0  0  0  0  0  0  0
   -5.3231    0.5322   -1.9537 O   0  0  0  0  0  0  0  0  0  0  0  0
   -3.6651    1.2643   -3.3580 O   0  0  0  0  0  0  0  0  0  0  0  0
   -4.2673    1.9684   -3.7686 H   0  0  0  0  0  0  0  0  0  0  0  0
 10 11  1  0  0  0
 10 20  1  0  0  0
 10 21  1  0  0  0
 11 12  2  0  0  0
 11 16  1  0  0  0
 12 13  1  0  0  0
 13 14  2  0  0  0
 14 15  1  0  0  0
 15 16  2  0  0  0
 15 19  1  0  0  0
 16 17  1  0  0  0
 17 18  2  0  0  0
 18 19  1  0  0  0
 19  1  1  0  0  0
  1  2  1  0  0  0
  1  6  1  0  0  0
  2  3  1  0  0  0
  3 22  1  0  0  0
  3  4  1  0  0  0
 22 23  1  0  0  0
 23 24  1  0  0  0
 24 25  1  0  0  0
 25 26  1  0  0  0
 26 27  1  0  0  0
 26 30  1  0  0  0
 27 28  1  0  0  0
 27 29  1  0  0  0
 30 31  2  0  0  0
 30 32  1  0  0  0
 32 33  1  0  0  0
  4  5  1  0  0  0
  4  6  1  0  0  0
  5  8  1  0  0  0
  6  7  1  0  0  0
  7  9  1  0  0  0
M  END
> <minimizedAffinity>
-8.00775

> <CNNscore>
0.2326816320

> <CNNaffinity>
5.7414355278

> <CNN_VS>
1.3359265327

> <CNNaffinity_variance>
0.3887667954

$$$$



 33 35  0  0  0  0  0  0  0  0999 V2000
   -1.5878   -0.0215   -2.7705 C   0  0  0  0  0  0  0  0  0  0  0  0
   -0.4478   -0.7765   -2.4104 O   0  0  0  0  0  0  0  0  0  0  0  0
    0.1815   -1.2069   -3.5956 C   0  0  0  0  0  0  0  0  0  0  0  0
   -0.2361   -0.2536   -4.7170 C   0  0  0  0  0  0  0  0  0  0  0  0
   -0.2176   -0.8470   -5.9950 O   0  0  0  0  0  0  0  0  0  0  0  0
   -1.6135    0.2000   -4.2873 C   0  0  0  0  0  0  0  0  0  0  0  0
   -2.6231   -0.5929   -4.8615 O   0  0  0  0  0  0  0  0  0  0  0  0
   -0.6874   -1.7204   -5.9470 H   0  0  0  0  0  0  0  0  0  0  0  0
   -2.8229   -0.2017   -5.7520 H   0  0  0  0  0  0  0  0  0  0  0  0
   -1.4715    4.6894    1.0908 N   0  0  0  0  0  0  0  0  0  0  0  0
   -1.6577    3.3067    0.7891 C   0  0  0  0  0  0  0  0  0  0  0  0
   -1.9385    2.4091    1.7805 N   0  0  0  0  0  0  0  0  0  0  0  0
   -2.1111    1.0757    1.5098 C   0  0  0  0  0  0  0  0  0  0  0  0
   -2.0059    0.6100    0.2286 N   0  0  0  0  0  0  0  0  0  0  0  0
   -1.7326    1.5018   -0.7533 C   0  0  0  0  0  0  0  0  0  0  0  0
   -1.5554    2.8200   -0.5101 C   0  0  0  0  0  0  0  0  0  0  0  0
   -1.2638    3.4752   -1.6500 N   0  0  0  0  0  0  0  0  0  0  0  0
   -1.2795    2.4813   -2.5803 C   0  0  0  0  0  0  0  0  0  0  0  0
   -1.5751    1.2610   -2.0622 N   0  0  0  0  0  0  0  0  0  0  0  0
   -1.2566    5.3808    0.3381 H   0  0  0  0  0  0  0  0  0  0  0  0
   -1.5530    5.0261    2.0764 H   0  0  0  0  0  0  0  0  0  0  0  0
    1.6985   -1.2327   -3.3782 C   0  0  0  0  0  0  0  0  0  0  0  0
    2.1267   -0.8723   -1.6352 S   0  0  0  0  0  0  0  0  0  0  0  0
    1.9217    0.9395   -1.7635 C   0  0  0  0  0  0  0  0  0  0  0  0
    2.9735    1.5276   -2.7135 C   0  0  0  0  0  0  0  0  0  0  0  0
    2.8550    3.0651   -2.8547 C   0  0  0  0  0  0  0  0  0  0  0  0
    1.8545    3.6209   -1.9391 N   0  0  0  0  0  0  0  0  0  0  0  0
    2.2303    3.6044   -0.9641 H   0  0  0  0  0  0  0  0  0  0  0  0
    0.9873    3.0363   -1.9632 H   0  0  0  0  0  0  0  0  0  0  0  0
    2.5041    3.4819   -4.2582 C   0  0  0  0  0  0  0  0  0  0  0  0
    3.0559    4.4768   -4.8034 O   0  0  0  0  0  0  0  0  0  0  0  0
    1.5554    2.7508   -4.9664 O   0  0  0  0  0  0  0  0  0  0  0  0
    1.3010    3.0071   -5.9133 H   0  0  0  0  0  0  0  0  0  0  0  0
 10 11  1  0  0  0
 10 20  1  0  0  0
 10 21  1  0  0  0
 11 12  2  0  0  0
 11 16  1  0  0  0
 12 13  1  0  0  0
 13 14  2  0  0  0
 14 15  1  0  0  0
 15 16  2  0  0  0
 15 19  1  0  0  0
 16 17  1  0  0  0
 17 18  2  0  0  0
 18 19  1  0  0  0
 19  1  1  0  0  0
  1  2  1  0  0  0
  1  6  1  0  0  0
  2  3  1  0  0  0
  3 22  1  0  0  0
  3  4  1  0  0  0
 22 23  1  0  0  0
 23 24  1  0  0  0
 24 25  1  0  0  0
 25 26  1  0  0  0
 26 27  1  0  0  0
 26 30  1  0  0  0
 27 28  1  0  0  0
 27 29  1  0  0  0
 30 31  2  0  0  0
 30 32  1  0  0  0
 32 33  1  0  0  0
  4  5  1  0  0  0
  4  6  1  0  0  0
  5  8  1  0  0  0
  6  7  1  0  0  0
  7  9  1  0  0  0
M  END
> <minimizedAffinity>
-8.76383

> <CNNscore>
0.1955078393

> <CNNaffinity>
5.5921697617

> <CNN_VS>
1.0933129787

> <CNNaffinity_variance>
0.3124625087

$$$$



 33 35  0  0  0  0  0  0  0  0999 V2000
   -2.0561   -0.3021   -1.5377 C   0  0  0  0  0  0  0  0  0  0  0  0
   -2.9469    0.7850   -1.6929 O   0  0  0  0  0  0  0  0  0  0  0  0
   -3.1047    1.4015   -0.4355 C   0  0  0  0  0  0  0  0  0  0  0  0
   -1.8764    1.0570    0.4092 C   0  0  0  0  0  0  0  0  0  0  0  0
   -2.1303    1.0549    1.7953 O   0  0  0  0  0  0  0  0  0  0  0  0
   -1.4601   -0.2953   -0.1253 C   0  0  0  0  0  0  0  0  0  0  0  0
   -2.0190   -1.3443    0.6263 O   0  0  0  0  0  0  0  0  0  0  0  0
   -2.9567    0.5320    1.9666 H   0  0  0  0  0  0  0  0  0  0  0  0
   -1.4053   -1.5087    1.3893 H   0  0  0  0  0  0  0  0  0  0  0  0
    2.7458   -0.8762   -5.2428 N   0  0  0  0  0  0  0  0  0  0  0  0
    2.0369   -1.1663   -4.0383 C   0  0  0  0  0  0  0  0  0  0  0  0
    2.5474   -2.0442   -3.1239 N   0  0  0  0  0  0  0  0  0  0  0  0
    1.8752   -2.3417   -1.9659 C   0  0  0  0  0  0  0  0  0  0  0  0
    0.6675   -1.7599   -1.6973 N   0  0  0  0  0  0  0  0  0  0  0  0
    0.1656   -0.8862   -2.6024 C   0  0  0  0  0  0  0  0  0  0  0  0
    0.8083   -0.5799   -3.7518 C   0  0  0  0  0  0  0  0  0  0  0  0
    0.0798    0.2840   -4.4842 N   0  0  0  0  0  0  0  0  0  0  0  0
   -1.0245    0.4764   -3.7114 C   0  0  0  0  0  0  0  0  0  0  0  0
   -0.9957   -0.2196   -2.5453 N   0  0  0  0  0  0  0  0  0  0  0  0
    2.3616   -0.2064   -5.9460 H   0  0  0  0  0  0  0  0  0  0  0  0
    3.6662   -1.3328   -5.4319 H   0  0  0  0  0  0  0  0  0  0  0  0
   -3.2787    2.9113   -0.6344 C   0  0  0  0  0  0  0  0  0  0  0  0
   -1.7412    3.8172   -0.2266 S   0  0  0  0  0  0  0  0  0  0  0  0
   -0.9830    3.6524   -1.8816 C   0  0  0  0  0  0  0  0  0  0  0  0
    0.4545    3.1298   -1.7582 C   0  0  0  0  0  0  0  0  0  0  0  0
    1.4292    3.8316   -2.7355 C   0  0  0  0  0  0  0  0  0  0  0  0
    0.7407    4.8085   -3.5840 N   0  0  0  0  0  0  0  0  0  0  0  0
    0.4940    5.6490   -3.0141 H   0  0  0  0  0  0  0  0  0  0  0  0
   -0.1460    4.3950   -3.9542 H   0  0  0  0  0  0  0  0  0  0  0  0
    2.1500    2.8509   -3.6218 C   0  0  0  0  0  0  0  0  0  0  0  0
    3.1072    2.1544   -3.1855 O   0  0  0  0  0  0  0  0  0  0  0  0
    1.7474    2.7096   -4.9461 O   0  0  0  0  0  0  0  0  0  0  0  0
    2.2130    2.0559   -5.5650 H   0  0  0  0  0  0  0  0  0  0  0  0
 10 11  1  0  0  0
 10 20  1  0  0  0
 10 21  1  0  0  0
 11 12  2  0  0  0
 11 16  1  0  0  0
 12 13  1  0  0  0
 13 14  2  0  0  0
 14 15  1  0  0  0
 15 16  2  0  0  0
 15 19  1  0  0  0
 16 17  1  0  0  0
 17 18  2  0  0  0
 18 19  1  0  0  0
 19  1  1  0  0  0
  1  2  1  0  0  0
  1  6  1  0  0  0
  2  3  1  0  0  0
  3 22  1  0  0  0
  3  4  1  0  0  0
 22 23  1  0  0  0
 23 24  1  0  0  0
 24 25  1  0  0  0
 25 26  1  0  0  0
 26 27  1  0  0  0
 26 30  1  0  0  0
 27 28  1  0  0  0
 27 29  1  0  0  0
 30 31  2  0  0  0
 30 32  1  0  0  0
 32 33  1  0  0  0
  4  5  1  0  0  0
  4  6  1  0  0  0
  5  8  1  0  0  0
  6  7  1  0  0  0
  7  9  1  0  0  0
M  END
> <minimizedAffinity>
-8.74055

> <CNNscore>
0.1214796081

> <CNNaffinity>
5.1307058334

> <CNN_VS>
0.6232761145

> <CNNaffinity_variance>
1.1551363468

$$$$



 33 35  0  0  0  0  0  0  0  0999 V2000
   -1.9507   -0.8814   -0.9051 C   0  0  0  0  0  0  0  0  0  0  0  0
   -2.9826    0.0578   -1.1340 O   0  0  0  0  0  0  0  0  0  0  0  0
   -3.1510    0.8150    0.0425 C   0  0  0  0  0  0  0  0  0  0  0  0
   -1.8443    0.7406    0.8349 C   0  0  0  0  0  0  0  0  0  0  0  0
   -2.0202    0.8955    2.2244 O   0  0  0  0  0  0  0  0  0  0  0  0
   -1.2850   -0.6106    0.4490 C   0  0  0  0  0  0  0  0  0  0  0  0
   -1.6608   -1.6084    1.3660 O   0  0  0  0  0  0  0  0  0  0  0  0
   -2.7609    0.3037    2.5192 H   0  0  0  0  0  0  0  0  0  0  0  0
   -0.9905   -1.5918    2.0983 H   0  0  0  0  0  0  0  0  0  0  0  0
    2.8580   -0.3091   -4.6016 N   0  0  0  0  0  0  0  0  0  0  0  0
    2.1825   -0.0900   -3.3635 C   0  0  0  0  0  0  0  0  0  0  0  0
    2.8093    0.5503   -2.3317 N   0  0  0  0  0  0  0  0  0  0  0  0
    2.1785    0.7608   -1.1321 C   0  0  0  0  0  0  0  0  0  0  0  0
    0.8948    0.3310   -0.9401 N   0  0  0  0  0  0  0  0  0  0  0  0
    0.2734   -0.2988   -1.9655 C   0  0  0  0  0  0  0  0  0  0  0  0
    0.8760   -0.5203   -3.1555 C   0  0  0  0  0  0  0  0  0  0  0  0
    0.0529   -1.1914   -3.9836 N   0  0  0  0  0  0  0  0  0  0  0  0
   -1.0672   -1.3543   -3.2270 C   0  0  0  0  0  0  0  0  0  0  0  0
   -0.9663   -0.8075   -1.9877 N   0  0  0  0  0  0  0  0  0  0  0  0
    2.3851   -0.7978   -5.3943 H   0  0  0  0  0  0  0  0  0  0  0  0
    3.8400    0.0241   -4.7287 H   0  0  0  0  0  0  0  0  0  0  0  0
   -3.5308    2.2513   -0.3345 C   0  0  0  0  0  0  0  0  0  0  0  0
   -2.6245    3.4690    0.6887 S   0  0  0  0  0  0  0  0  0  0  0  0
   -1.8517    4.3520   -0.7128 C   0  0  0  0  0  0  0  0  0  0  0  0
   -0.8928    3.4196   -1.4650 C   0  0  0  0  0  0  0  0  0  0  0  0
   -0.9259    3.6415   -2.9971 C   0  0  0  0  0  0  0  0  0  0  0  0
   -1.7980    4.7599   -3.3670 N   0  0  0  0  0  0  0  0  0  0  0  0
   -1.3336    5.6605   -3.1111 H   0  0  0  0  0  0  0  0  0  0  0  0
   -2.6991    4.6974   -2.8392 H   0  0  0  0  0  0  0  0  0  0  0  0
   -1.3807    2.4134   -3.7399 C   0  0  0  0  0  0  0  0  0  0  0  0
   -0.6428    1.8562   -4.5982 O   0  0  0  0  0  0  0  0  0  0  0  0
   -2.6381    1.8829   -3.4690 O   0  0  0  0  0  0  0  0  0  0  0  0
   -2.9695    1.0560   -3.9523 H   0  0  0  0  0  0  0  0  0  0  0  0
 10 11  1  0  0  0
 10 20  1  0  0  0
 10 21  1  0  0  0
 11 12  2  0  0  0
 11 16  1  0  0  0
 12 13  1  0  0  0
 13 14  2  0  0  0
 14 15  1  0  0  0
 15 16  2  0  0  0
 15 19  1  0  0  0
 16 17  1  0  0  0
 17 18  2  0  0  0
 18 19  1  0  0  0
 19  1  1  0  0  0
  1  2  1  0  0  0
  1  6  1  0  0  0
  2  3  1  0  0  0
  3 22  1  0  0  0
  3  4  1  0  0  0
 22 23  1  0  0  0
 23 24  1  0  0  0
 24 25  1  0  0  0
 25 26  1  0  0  0
 26 27  1  0  0  0
 26 30  1  0  0  0
 27 28  1  0  0  0
 27 29  1  0  0  0
 30 31  2  0  0  0
 30 32  1  0  0  0
 32 33  1  0  0  0
  4  5  1  0  0  0
  4  6  1  0  0  0
  5  8  1  0  0  0
  6  7  1  0  0  0
  7  9  1  0  0  0
M  END
> <minimizedAffinity>
-7.56180

> <CNNscore>
0.0973721445

> <CNNaffinity>
5.0669589043

> <CNN_VS>
0.4933806658

> <CNNaffinity_variance>
0.3932411075

$$$$



 33 35  0  0  0  0  0  0  0  0999 V2000
    1.3195    2.4790   -1.1028 C   0  0  0  0  0  0  0  0  0  0  0  0
   -0.0467    2.6546   -0.7831 O   0  0  0  0  0  0  0  0  0  0  0  0
   -0.5973    3.5630   -1.7092 C   0  0  0  0  0  0  0  0  0  0  0  0
    0.2760    3.5341   -2.9651 C   0  0  0  0  0  0  0  0  0  0  0  0
    0.2544    4.7407   -3.6925 O   0  0  0  0  0  0  0  0  0  0  0  0
    1.6447    3.1855   -2.4239 C   0  0  0  0  0  0  0  0  0  0  0  0
    2.4089    4.3375   -2.1657 O   0  0  0  0  0  0  0  0  0  0  0  0
    0.3955    5.4947   -3.0621 H   0  0  0  0  0  0  0  0  0  0  0  0
    2.8584    4.5800   -3.0172 H   0  0  0  0  0  0  0  0  0  0  0  0
    2.3036   -3.3576   -2.5453 N   0  0  0  0  0  0  0  0  0  0  0  0
    1.7368   -2.0719   -2.7964 C   0  0  0  0  0  0  0  0  0  0  0  0
    1.0254   -1.8353   -3.9389 N   0  0  0  0  0  0  0  0  0  0  0  0
    0.4820   -0.6034   -4.2006 C   0  0  0  0  0  0  0  0  0  0  0  0
    0.6408    0.4258   -3.3146 N   0  0  0  0  0  0  0  0  0  0  0  0
    1.3418    0.1880   -2.1804 C   0  0  0  0  0  0  0  0  0  0  0  0
    1.8891   -1.0168   -1.9025 C   0  0  0  0  0  0  0  0  0  0  0  0
    2.5573   -0.9734   -0.7341 N   0  0  0  0  0  0  0  0  0  0  0  0
    2.3769    0.3149   -0.3324 C   0  0  0  0  0  0  0  0  0  0  0  0
    1.6259    1.0492   -1.1936 N   0  0  0  0  0  0  0  0  0  0  0  0
    2.8485   -3.5454   -1.6743 H   0  0  0  0  0  0  0  0  0  0  0  0
    2.1741   -4.1311   -3.2355 H   0  0  0  0  0  0  0  0  0  0  0  0
   -2.0516    3.1712   -1.9933 C   0  0  0  0  0  0  0  0  0  0  0  0
   -3.0119    3.0101   -0.4432 S   0  0  0  0  0  0  0  0  0  0  0  0
   -3.8678    1.4650   -0.9136 C   0  0  0  0  0  0  0  0  0  0  0  0
   -2.8998    0.2768   -0.8380 C   0  0  0  0  0  0  0  0  0  0  0  0
   -3.0800   -0.7138   -2.0145 C   0  0  0  0  0  0  0  0  0  0  0  0
   -1.8552   -1.4741   -2.2790 N   0  0  0  0  0  0  0  0  0  0  0  0
   -1.7193   -2.1849   -1.5250 H   0  0  0  0  0  0  0  0  0  0  0  0
   -1.0298   -0.8316   -2.2727 H   0  0  0  0  0  0  0  0  0  0  0  0
   -3.4964   -0.0193   -3.2839 C   0  0  0  0  0  0  0  0  0  0  0  0
   -4.6967   -0.0285   -3.6721 O   0  0  0  0  0  0  0  0  0  0  0  0
   -2.5368    0.6480   -4.0387 O   0  0  0  0  0  0  0  0  0  0  0  0
   -2.7887    1.1257   -4.8963 H   0  0  0  0  0  0  0  0  0  0  0  0
 10 11  1  0  0  0
 10 20  1  0  0  0
 10 21  1  0  0  0
 11 12  2  0  0  0
 11 16  1  0  0  0
 12 13  1  0  0  0
 13 14  2  0  0  0
 14 15  1  0  0  0
 15 16  2  0  0  0
 15 19  1  0  0  0
 16 17  1  0  0  0
 17 18  2  0  0  0
 18 19  1  0  0  0
 19  1  1  0  0  0
  1  2  1  0  0  0
  1  6  1  0  0  0
  2  3  1  0  0  0
  3 22  1  0  0  0
  3  4  1  0  0  0
 22 23  1  0  0  0
 23 24  1  0  0  0
 24 25  1  0  0  0
 25 26  1  0  0  0
 26 27  1  0  0  0
 26 30  1  0  0  0
 27 28  1  0  0  0
 27 29  1  0  0  0
 30 31  2  0  0  0
 30 32  1  0  0  0
 32 33  1  0  0  0
  4  5  1  0  0  0
  4  6  1  0  0  0
  5  8  1  0  0  0
  6  7  1  0  0  0
  7  9  1  0  0  0
M  END
> <minimizedAffinity>
-7.90510

> <CNNscore>
0.0953679457

> <CNNaffinity>
5.3398733139

> <CNN_VS>
0.5092527270

> <CNNaffinity_variance>
0.7150890231

$$$$
